LTspice 24.1.9 for Windows
Circuit: C:\Users\gwert\_itmo\электротехника\лабы\lab2\Draft1.net
Start Time: Sun Oct 12 17:13:48 2025
solver = Normal
Maximum thread count: 12
tnom = 27
temp = 27
method = trap
Direct Newton iteration for .op point succeeded.
Total elapsed time: 0.034 seconds.

Files loaded:
C:\Users\gwert\_itmo\электротехника\лабы\lab2\Draft1.net

