LTspice 24.1.9 for Windows
Circuit: C:\Users\gwert\ltspice\lab1\lab1.net
Start Time: Mon Sep 22 10:16:23 2025
solver = Normal
Maximum thread count: 12
tnom = 27
temp = 27
method = trap
Direct Newton iteration for .op point succeeded.
Total elapsed time: 0.152 seconds.

Files loaded:
C:\Users\gwert\ltspice\lab1\lab1.net

