LTspice 24.1.9 for Windows
Circuit: C:\Users\gwert\ltspice\lab2\Draft4.net
Start Time: Wed Oct  1 11:00:01 2025
solver = Normal
Maximum thread count: 12
tnom = 27
temp = 27
method = trap
Direct Newton iteration for .op point succeeded.
Total elapsed time: 0.258 seconds.

Files loaded:
C:\Users\gwert\ltspice\lab2\Draft4.net

