LTspice 24.1.9 for Windows
Circuit: C:\Users\gwert\_itmo\электротехника\лабы\lab2\схемы\RL.net
Start Time: Sun Oct 12 17:52:34 2025
solver = Normal
Maximum thread count: 12
tnom = 27
temp = 27
method = trap
Direct Newton iteration for .op point succeeded.
Total elapsed time: 0.079 seconds.

Files loaded:
C:\Users\gwert\_itmo\электротехника\лабы\lab2\схемы\RL.net

