LTspice 24.1.9 for Windows
Circuit: C:\Users\gwert\_itmo\электротехника\лабы\lab2\схемы\RLC.net
Start Time: Tue Oct 21 15:21:46 2025
solver = Normal
Maximum thread count: 12
tnom = 27
temp = 27
method = trap
Direct Newton iteration for .op point succeeded.
Total elapsed time: 0.128 seconds.

Files loaded:
C:\Users\gwert\_itmo\электротехника\лабы\lab2\схемы\RLC.net

